balances-adjustment/src/test/resources/testCaseNanInNetPositionComputation.uct
##C 2007.05.01
Manually made test case to fix NaN issue in net position computation
##N
##ZCH
S     21              0 0        0.00000 0.00000 0.00000 0.00000
##ZIT
I     22              0 0        0.00000 0.00000 0.00000 0.00000
##ZXX
X_S_I_21              0 0        0.00000 0.00000 0.00000 0.00000
##L
S     21 X_S_I_21 1 8 2.0000 10.000 100.0000   9999
X_S_I_21 I     22 1 0 2.0000 10.000 100.0000   9999
